openpy_fx_tools_dss/IMEX_to_DSS/xlsx_DSS_xlsx/Examples/37Bus/xlsx_files/Transformer_37BusIEEE.dss
New "Transformer.subxf" phases=3 windings=2 buses=[sourcebus,  799.1.2.3.0] conns=[delta, delta] kVs=[230.0, 4.8] kVAs=[2500.0, 2500.0] taps=[1.0, 1.0] %Rs=[1.0, 1.0] normamps=6.90310104465857 emergamps=9.41331960635259 normhkVA=2750 emerghkVA=3750 RdcOhms=0.078336 XHL=8.0 %loadloss=2.0 Xscarray=[8.0] 
New "Transformer.xfm1" phases=3 windings=2 buses=[709.1.2.3.0,  775.1.2.3.0] conns=[delta, delta] kVs=[4.8, 0.48] kVAs=[500.0, 500.0] taps=[1.0, 1.0] %Rs=[0.045, 0.045] normamps=66.1547183446446 emergamps=90.210979560879 normhkVA=550 emerghkVA=750 RdcOhms=0.000176256 XHL=1.81 %loadloss=0.09 Xscarray=[1.81] 
New "Transformer.reg1a" phases=1 windings=2 buses=[799.1.2,  799r.1.2] conns=[delta, delta] kVs=[4.8, 4.8] kVAs=[2000.0, 2000.0] taps=[1.0, 1.1] %Rs=[0.2, 0.2] normamps=458.333333333333 emergamps=625.0 normhkVA=2200 emerghkVA=3000 RdcOhms=0.019584 XHL=1.0 %loadloss=0.4 Xscarray=[1.0] 
New "Transformer.reg1c" phases=1 windings=2 buses=[799.3.2,  799r.3.2] conns=[delta, delta] kVs=[4.8, 4.8] kVAs=[2000.0, 2000.0] taps=[1.0, 1.0875] %Rs=[0.2, 0.2] normamps=458.333333333333 emergamps=625.0 normhkVA=2200 emerghkVA=3000 RdcOhms=0.019584 XHL=1.0 %loadloss=0.4 Xscarray=[1.0] 
